24

C      -1.86206300     0.14656000      -0.00000100
C      -1.17121600     1.45501600      -0.00000200
C      0.14903600     1.86475200      -0.00000200
C      1.45749200     1.17390400      -0.00000100
C      1.86722600     -0.14634800      0.00000100
C      1.17637900     -1.45480500      0.00000200
C      -0.14387300     -1.86454100      0.00000200
C      -1.45232900     -1.17369300      0.00000100
As      -3.86386100     2.08769400      -0.00000300
As      -2.08500700     -3.86633800      0.00000400
As      3.86902400     -2.08748300      0.00000300
As      2.09017000     3.86654900      -0.00000300
As      -4.25923000     -1.27499300      0.00000000
As      -1.27251600     4.26191800      -0.00000500
As      1.27767900     -4.26170700      0.00000500
As      4.26439300     1.27520300      0.00000000
C      -2.10402700     2.56612600      -0.00000300
C      0.29696700     3.30948200      -0.00000300
C      2.56860100     2.10671400      -0.00000100
C      3.31195800     -0.29427900      0.00000100
C      2.10919000     -2.56591400      0.00000300
C      -0.29180400     -3.30927000      0.00000300
C      -2.56343800     -2.10650200      0.00000200
C      -3.30679600     0.29449100      -0.00000100
